---- qbsp / ericw-tools v0.18.1-32-g6660c5f ----
Input file: testWildebrook.map
Output file: testWildebrook.bsp

---- LoadMapFile ----
*** WARNING 02: Multiple info_player_start entities
*** WARNING 02: Multiple info_player_start entities
*** WARNING 02: Multiple info_player_start entities
*** WARNING 06: No info_player_deathmatch entities in level
         2340 faces
          390 brushes
          165 entities
           19 unique texnames
          317 texinfo

Opened WAD: C:/Users/Void/Desktop/Quake/wads/id1.wad
Opened WAD: C:/Users/Void/Desktop/Quake/wads/hipnotic.wad
Processing hull 0...
---- Brush_LoadEntity ----
          390 brushes
          368 planes
---- CSGFaces ----
         2340 brushfaces
         2073 csgfaces
         1638 mergedfaces
---- SolidBSP ----
         2892 split nodes
         1120 solid leafs
         1609 empty leafs
          164 water leafs
            0 detail leafs
            0 detail illusionary leafs
            0 detail fence leafs
            0 illusionary visblocker leafs
         7069 leaffaces
         6668 nodefaces
---- Portalize ----
         1773 vis leafs
         1773 vis clusters
         5337 vis portals
---- FillOutside ----
          437 outleafs
---- MergeAll ----
         1615 mergefaces
---- SolidBSP ----
         1205 split nodes
          571 solid leafs
          548 empty leafs
           87 water leafs
            0 detail leafs
            0 detail illusionary leafs
            0 detail fence leafs
            0 illusionary visblocker leafs
         4473 leaffaces
         3969 nodefaces
---- Portalize ----
          635 vis leafs
          635 vis clusters
         1995 vis portals
---- Tjunc ----
         2810 world edges
        12629 edge points
         3619 edges added by tjunctions
            0 faces added by tjunctions
---- MakeFaceEdges ----
---- GrowRegions ----
Processing hull 1...
Processing hull 2...
---- WriteBSPFile ----
Wrote testWildebrook.bsp
          770 planes            15400
         5242 vertexes          62904
         1205 nodes             28920
          280 texinfo           11200
         3969 faces             79380
         3431 clipnodes         27448
          636 leafs             17808
         4473 marksurfaces       8946
        19490 surfedges         77960
         9746 edges             38984
           19 textures         170840
              lightdata             0
              visdata               0
              entdata           11013

0.453 seconds elapsed
Peak memory usage: 23882878 (22.8M)
